=========================================
========GTA Zimnicea Vice Final==========
=========================================
					 
UN MOD FACUT DE LIVIU PRODUCTION

WEBSITE :


==============DESPRE JOC=================

GTA ZIMNICEA VICE ESTE UN MOD (O MODIFICARE) A JOCULUI GTA VICE CITY DE LA ROCKSTAR GAMES.MODUL ARE SCOPUL DE A INTRODUCE IN JOC CAT MAI MULT ROMANISM SI CAT MAI MULTA DISTRACTIE

=========================================

===============CONTINUT==================

=========================================


===============|VEHICULE|================

IN PRIMUL RAND MULTUMIM ECHIPEI MAMAIA VICE (WWW.MAMAIAVICE.IAD.RO) PENTRU MASINILE SUPERBE INCORPORATE IN JOC.

MODUL CONTINE URMATOARELE MASINI :

|ARO FORESTER
|DACIA DOUBLE CAB
|DACIA PICKUP
|ARO ARMAT
|DAC ARMAT
|TELEMAC
|DACIA PICKUP POSTA ROMANA
|DACIA 1100
|DACIA 1300
|DACIA 1310 IT
|BMW M5
|TRABANT
|DACIA LOGAN
|DACIA LOGAN LIMUZINA
|IAR SOIM
|DACIA LOGAN TURNING
|MATIZ
|MATIZ TUNAT
|DAEWOO CIELO
|DAEWOO TICO
|BARCA DE PESCUIT
|PESCARUSUL
|AIRBUS A310
|BTR-80 ZIMBRU
|CHEVROLET LACETTI
|CHECKER HOT ROAD
|DAC "AUTOBUZ"
|DACIA 1300 MILITIE
|DACIA 1310 WASHINTON
|DACIA 1310 TUNATA
|DACIA 500 LASTUN
|DACIA LOGAN VAN
|DACIA LOGAN MCV
|DACIA LOGAN POLITIE
|DACIA LOGAN TAXI
|DACIA LOGAN SCOALA DE SOFERI
|DACIA SOLENZA
|DACIA SOLENZA TAXI
|DACIA SUPERNOVA
|EUROCOPTER AS-350 ECUREUIL
|EUROCOPTER AS-365N DAUPHIN 2
|ROMAN DIESEL
|ROMAN DIESEL GUNOI
|ROMAN DIESEL POMPIERI
|EUROCOPTER EC-165 MAVERICK
|HARLEY DAVYSON
|FORD F-150 CARAVANA DRAGOSTEI
|GMC 600 BANCA TRANSILVANIA
|IAR-316B ALOUETTE III
|IAR-330L PUMA SOCAT
|IAR-99 SOIM
|IKARUS 260 AUTOBUZ
|"IVECO DAILY" AMBULANTA
|LADA 2101 GTS
|DACIA LOGAN MCV LIDAS
|MAX 103 AUTOBUZ
|MERCEDES 230E
|MIG 21 LANCER
|MIG 21 LANCER DE JUCARIE
|MOBRA HOINAR
|MULTICAR
|MULTICAR BAGAJE
|POLITIA DE FRONTIERA
|RENAULT KANGO "ROMTELECOM"
|SR 131 BUCEGI
|SUZUKI ADRESS
|TRACTOR
|TVR
|VW CARAVELE POLITIE
|VW GOLF
|VW GOLF BAIETI BUNI
|YAMAHA

=========================================

=============|STATII RADIO|==============

|PROFM
|FAN MANELE
|RADIO 21
|RADIO ZU
|EUROPA FM
|KISS FM
|ONE FM
|VIBE FM

=========================================

================|SKINURI|================

TOMMY VERCITY : ROMANIA SKIN
ICOANA "ASPIRINA"
ICOANA "LEI"
ICOANA : NU DA SPAGA
ICOANA : HAGI
ICOANA : ARME

=========================================

============|MAGAZINE,COMPANI|===========

|SC DONARIS GROUP ZIMNICEA
|FARMACIE
|PISCINILE ORASULUI ZIMNICEA
|BURGER KING
|X-MODE
|PLAYBOY CLUB
|SC LIDAS PROD SRL
|IREB ZIMNICEA
|PETROM
|RESTAURANT ISLANDO
|ALIMENTARA 1
|ALIMENTARA 2
|ALIMENTARA 3
|HOTEL DANUBIS
|S.C PAUL ALBU C.O.M
|ARME SI MUNITIE
|S.C CAFE S.R.L
|INCALTAMINTE
|S.C HYUNDAI S.R.L
|SPALATORIE AUTO

=========================================

=================|F.A.Q|=================

1. SE BLOCHEAZA "CATEODATA"
   RASPUNS : AI SUPRASOLICITAT JOCUL
2. EXISTA O MASINA CARE NU SE "STRICA"
   RASPUNS : EU AM PUSO PENTRU CA NU AVEAM CE SA PUN IN LOCUL EI



=======================================
===COPYRIGHY © 2009 LIVIU PRODUCTION===
=======================================